/*--------------------------------*- C++ -*----------------------------------*\
| =========                 |                                                 |
| \\      /  F ield         | OpenFOAM: The Open Source CFD Toolbox           |
|  \\    /   O peration     | Version:  v2312                                 |
|   \\  /    A nd           | Website:  www.openfoam.com                      |
|    \\/     M anipulation  |                                                 |
\*---------------------------------------------------------------------------*/
FoamFile
{
    version     2.0;
    format      ascii;
    class       dictionary;
    object      blockMeshDict;
}
// * * * * * * * * * * * * * * * * * * * * * * * * * * * * * * * * * * * * * //

scale   1;
L 0.1;
H 0.1;
D 0.1;

X0 -0.11;
X1 0;
Y0 0.01;
Y1 0.11;
Z0 -0.01;
Z1 0.09;
NX 10;
NY 10;
NZ 10;
vertices
(
    ($X0 $Y0 $Z0)
    ($X1 $Y0 $Z0)
    ($X1 $Y1 $Z0)
    ($X0 $Y1 $Z0)
    ($X0 $Y0 $Z1)
    ($X1 $Y0 $Z1)
    ($X1 $Y1 $Z1)
    ($X0 $Y1 $Z1)
);

blocks
(
    hex (0 1 2 3 4 5 6 7) ($NX $NY $NZ) simpleGrading (1 1 1)
);

edges
(
);

boundary
(
    top
    {
        type wall;
        faces
        (
            (3 7 6 2)
        );
    }
    inlet
    {
        type patch;
        faces
        (
            (0 4 7 3)
        );
    }
    outlet
    {
        type patch;
        faces
        (
            (2 6 5 1)
        );
    }
    bottom
    {
        type patch;
        faces
        (
            (1 5 4 0)
        );
    }
    front
    {
        type patch;
        faces
        (
            (4 5 6 7)
        );
    }
back
    {
        type patch;
        faces
        (
            (0 3 2 1)
        );
    }

);

mergePatchPairs
(
);


// ************************************************************************* //
